12
para-Benzoquinone, D2h Symmetry
C   -1.296   0.009    0.07
C   -0.648   1.298    0.05
C   -0.647  -1.305    0.07
C    0.652   1.302   -0.09
C    0.655  -1.305   -0.06
C    1.296   0.008    0.09
O   -2.502   0.001   -0.07
O    2.501   0.001   -0.06
H   -1.196   2.096    0.03
H   -1.198  -2.104   -0.06
H    1.197   2.101    0.01
H    1.196  -2.102    0.09
